                    6
energy=      0.000000
H          -0.576770    0.953900    0.569210
C          -0.251120    0.908410   -0.490350
Cl         -0.660770    2.435709   -1.302959
Br          0.640180   -2.374939    1.264279
H          -0.766630    0.068310   -0.999520
H           0.845940    0.748990   -0.533130
                    6
energy=      0.000000
H          -0.576587    0.951595    0.570308
C          -0.246938    0.891702   -0.481525
Cl         -0.666465    2.456964   -1.314226
Br          0.634098   -2.354828    1.253267
H          -0.766185    0.066112   -0.998511
H           0.846302    0.746770   -0.531813
                    6
energy=      0.000000
H          -0.576404    0.949290    0.571407
C          -0.242756    0.874995   -0.472701
Cl         -0.672161    2.478218   -1.325492
Br          0.628016   -2.334717    1.242255
H          -0.765740    0.063913   -0.997503
H           0.846665    0.744551   -0.530496
                    6
energy=      0.000000
H          -0.576222    0.946985    0.572505
C          -0.238574    0.858288   -0.463876
Cl         -0.677856    2.499473   -1.336758
Br          0.621934   -2.314606    1.231243
H          -0.765295    0.061715   -0.996495
H           0.847028    0.742332   -0.529179
                    6
energy=      0.000000
H          -0.576039    0.944680    0.573603
C          -0.234392    0.841581   -0.455052
Cl         -0.683551    2.520728   -1.348024
Br          0.615852   -2.294494    1.220231
H          -0.764851    0.059516   -0.995487
H           0.847391    0.740112   -0.527862
                    6
energy=      0.000000
H          -0.575856    0.942376    0.574702
C          -0.230210    0.824873   -0.446227
Cl         -0.689247    2.541983   -1.359290
Br          0.609769   -2.274383    1.209219
H          -0.764406    0.057318   -0.994479
H           0.847753    0.737893   -0.526545
                    6
energy=      0.000000
H          -0.575673    0.940071    0.575800
C          -0.226028    0.808166   -0.437403
Cl         -0.694942    2.563237   -1.370556
Br          0.603687   -2.254272    1.198207
H          -0.763961    0.055120   -0.993470
H           0.848116    0.735674   -0.525227
                    6
energy=      0.000000
H          -0.575491    0.937766    0.576899
C          -0.221846    0.791459   -0.428578
Cl         -0.700638    2.584492   -1.381822
Br          0.597605   -2.234161    1.187195
H          -0.763516    0.052921   -0.992462
H           0.848479    0.733454   -0.523910
                    6
energy=      0.000000
H          -0.575308    0.935461    0.577997
C          -0.217664    0.774751   -0.419753
Cl         -0.706333    2.605747   -1.393088
Br          0.591523   -2.214050    1.176183
H          -0.763071    0.050723   -0.991454
H           0.848841    0.731235   -0.522593
                    6
energy=      0.000000
H          -0.575125    0.933157    0.579095
C          -0.213481    0.758044   -0.410929
Cl         -0.712029    2.627002   -1.404355
Br          0.585441   -2.193939    1.165171
H          -0.762627    0.048524   -0.990446
H           0.849204    0.729016   -0.521276
                    6
energy=      0.000000
H          -0.574942    0.930852    0.580194
C          -0.209299    0.741337   -0.402104
Cl         -0.717724    2.648256   -1.415621
Br          0.579359   -2.173828    1.154159
H          -0.762182    0.046326   -0.989438
H           0.849567    0.726796   -0.519959
                    6
energy=      0.000000
H          -0.574760    0.928547    0.581292
C          -0.205117    0.724630   -0.393280
Cl         -0.723420    2.669511   -1.426887
Br          0.573277   -2.153716    1.143147
H          -0.761737    0.044127   -0.988430
H           0.849930    0.724577   -0.518642
                    6
energy=      0.000000
H          -0.574577    0.926242    0.582391
C          -0.200935    0.707922   -0.384455
Cl         -0.729115    2.690766   -1.438153
Br          0.567195   -2.133605    1.132135
H          -0.761292    0.041929   -0.987421
H           0.850292    0.722358   -0.517325
                    6
energy=      0.000000
H          -0.574394    0.923938    0.583489
C          -0.196753    0.691215   -0.375631
Cl         -0.734811    2.712021   -1.449419
Br          0.561113   -2.113494    1.121123
H          -0.760848    0.039731   -0.986413
H           0.850655    0.720139   -0.516008
                    6
energy=      0.000000
H          -0.574212    0.921633    0.584587
C          -0.192571    0.674508   -0.366806
Cl         -0.740506    2.733276   -1.460685
Br          0.555031   -2.093383    1.110111
H          -0.760403    0.037532   -0.985405
H           0.851018    0.717919   -0.514691
                    6
energy=      0.000000
H          -0.574029    0.919328    0.585686
C          -0.188389    0.657801   -0.357982
Cl         -0.746201    2.754530   -1.471951
Br          0.548949   -2.073272    1.099099
H          -0.759958    0.035334   -0.984397
H           0.851381    0.715700   -0.513374
                    6
energy=      0.000000
H          -0.573846    0.917023    0.586784
C          -0.184207    0.641093   -0.349157
Cl         -0.751897    2.775785   -1.483217
Br          0.542867   -2.053161    1.088087
H          -0.759513    0.033135   -0.983389
H           0.851743    0.713481   -0.512057
                    6
energy=      0.000000
H          -0.573663    0.914718    0.587883
C          -0.180025    0.624386   -0.340333
Cl         -0.757592    2.797040   -1.494484
Br          0.536785   -2.033050    1.077075
H          -0.759069    0.030937   -0.982380
H           0.852106    0.711261   -0.510740
                    6
energy=      0.000000
H          -0.573481    0.912414    0.588981
C          -0.175843    0.607679   -0.331508
Cl         -0.763288    2.818295   -1.505750
Br          0.530703   -2.012939    1.066063
H          -0.758624    0.028739   -0.981372
H           0.852469    0.709042   -0.509423
                    6
energy=      0.000000
H          -0.573298    0.910109    0.590079
C          -0.171661    0.590972   -0.322683
Cl         -0.768983    2.839549   -1.517016
Br          0.524621   -1.992827    1.055051
H          -0.758179    0.026540   -0.980364
H           0.852831    0.706823   -0.508106
                    6
energy=      0.000000
H          -0.573115    0.907804    0.591178
C          -0.167479    0.574264   -0.313859
Cl         -0.774679    2.860804   -1.528282
Br          0.518539   -1.972716    1.044039
H          -0.757734    0.024342   -0.979356
H           0.853194    0.704603   -0.506789
                    6
energy=      0.000000
H          -0.572932    0.905499    0.592276
C          -0.163297    0.557557   -0.305034
Cl         -0.780374    2.882059   -1.539548
Br          0.512457   -1.952605    1.033027
H          -0.757289    0.022143   -0.978348
H           0.853557    0.702384   -0.505472
                    6
energy=      0.000000
H          -0.572750    0.903195    0.593375
C          -0.159115    0.540850   -0.296210
Cl         -0.786070    2.903314   -1.550814
Br          0.506375   -1.932494    1.022015
H          -0.756845    0.019945   -0.977340
H           0.853920    0.700165   -0.504155
                    6
energy=      0.000000
H          -0.572567    0.900890    0.594473
C          -0.154933    0.524142   -0.287385
Cl         -0.791765    2.924568   -1.562080
Br          0.500293   -1.912383    1.011002
H          -0.756400    0.017747   -0.976331
H           0.854282    0.697945   -0.502838
                    6
energy=      0.000000
H          -0.572384    0.898585    0.595572
C          -0.150751    0.507435   -0.278561
Cl         -0.797461    2.945823   -1.573347
Br          0.494211   -1.892272    0.999990
H          -0.755955    0.015548   -0.975323
H           0.854645    0.695726   -0.501521
                    6
energy=      0.000000
H          -0.572202    0.896280    0.596670
C          -0.146569    0.490728   -0.269736
Cl         -0.803156    2.967078   -1.584613
Br          0.488129   -1.872161    0.988978
H          -0.755510    0.013350   -0.974315
H           0.855008    0.693507   -0.500204
                    6
energy=      0.000000
H          -0.572019    0.893975    0.597768
C          -0.142387    0.474021   -0.260912
Cl         -0.808851    2.988333   -1.595879
Br          0.482047   -1.852050    0.977966
H          -0.755066    0.011151   -0.973307
H           0.855371    0.691287   -0.498887
                    6
energy=      0.000000
H          -0.571836    0.891671    0.598867
C          -0.138205    0.457313   -0.252087
Cl         -0.814547    3.009587   -1.607145
Br          0.475965   -1.831938    0.966954
H          -0.754621    0.008953   -0.972299
H           0.855733    0.689068   -0.497570
                    6
energy=      0.000000
H          -0.571653    0.889366    0.599965
C          -0.134023    0.440606   -0.243263
Cl         -0.820242    3.030842   -1.618411
Br          0.469883   -1.811827    0.955942
H          -0.754176    0.006755   -0.971290
H           0.856096    0.686849   -0.496252
                    6
energy=      0.000000
H          -0.571471    0.887061    0.601064
C          -0.129841    0.423899   -0.234438
Cl         -0.825938    3.052097   -1.629677
Br          0.463800   -1.791716    0.944930
H          -0.753731    0.004556   -0.970282
H           0.856459    0.684629   -0.494935
                    6
energy=      0.000000
H          -0.571288    0.884756    0.602162
C          -0.125659    0.407192   -0.225614
Cl         -0.831633    3.073352   -1.640943
Br          0.457718   -1.771605    0.933918
H          -0.753286    0.002358   -0.969274
H           0.856821    0.682410   -0.493618
                    6
energy=      0.000000
H          -0.571105    0.882452    0.603260
C          -0.121477    0.390484   -0.216789
Cl         -0.837329    3.094606   -1.652209
Br          0.451636   -1.751494    0.922906
H          -0.752842    0.000159   -0.968266
H           0.857184    0.680191   -0.492301
                    6
energy=      0.000000
H          -0.570922    0.880147    0.604359
C          -0.117294    0.373777   -0.207964
Cl         -0.843024    3.115861   -1.663476
Br          0.445554   -1.731383    0.911894
H          -0.752397   -0.002039   -0.967258
H           0.857547    0.677971   -0.490984
                    6
energy=      0.000000
H          -0.570740    0.877842    0.605457
C          -0.113112    0.357070   -0.199140
Cl         -0.848720    3.137116   -1.674742
Br          0.439472   -1.711272    0.900882
H          -0.751952   -0.004237   -0.966250
H           0.857910    0.675752   -0.489667
                    6
energy=      0.000000
H          -0.570557    0.875537    0.606556
C          -0.108930    0.340363   -0.190315
Cl         -0.854415    3.158371   -1.686008
Br          0.433390   -1.691161    0.889870
H          -0.751507   -0.006436   -0.965241
H           0.858272    0.673533   -0.488350
                    6
energy=      0.000000
H          -0.570374    0.873233    0.607654
C          -0.104748    0.323655   -0.181491
Cl         -0.860111    3.179626   -1.697274
Br          0.427308   -1.671049    0.878858
H          -0.751063   -0.008634   -0.964233
H           0.858635    0.671314   -0.487033
                    6
energy=      0.000000
H          -0.570192    0.870928    0.608752
C          -0.100566    0.306948   -0.172666
Cl         -0.865806    3.200880   -1.708540
Br          0.421226   -1.650938    0.867846
H          -0.750618   -0.010833   -0.963225
H           0.858998    0.669094   -0.485716
                    6
energy=      0.000000
H          -0.570009    0.868623    0.609851
C          -0.096384    0.290241   -0.163842
Cl         -0.871501    3.222135   -1.719806
Br          0.415144   -1.630827    0.856834
H          -0.750173   -0.013031   -0.962217
H           0.859361    0.666875   -0.484399
                    6
energy=      0.000000
H          -0.569826    0.866318    0.610949
C          -0.092202    0.273534   -0.155017
Cl         -0.877197    3.243390   -1.731072
Br          0.409062   -1.610716    0.845822
H          -0.749728   -0.015230   -0.961209
H           0.859723    0.664656   -0.483082
                    6
energy=      0.000000
H          -0.569643    0.864013    0.612048
C          -0.088020    0.256826   -0.146193
Cl         -0.882892    3.264645   -1.742338
Br          0.402980   -1.590605    0.834810
H          -0.749284   -0.017428   -0.960200
H           0.860086    0.662436   -0.481765
                    6
energy=      0.000000
H          -0.569461    0.861709    0.613146
C          -0.083838    0.240119   -0.137368
Cl         -0.888588    3.285899   -1.753605
Br          0.396898   -1.570494    0.823798
H          -0.748839   -0.019626   -0.959192
H           0.860449    0.660217   -0.480448
                    6
energy=      0.000000
H          -0.569278    0.859404    0.614244
C          -0.079656    0.223412   -0.128544
Cl         -0.894283    3.307154   -1.764871
Br          0.390816   -1.550383    0.812786
H          -0.748394   -0.021825   -0.958184
H           0.860811    0.657998   -0.479131
                    6
energy=      0.000000
H          -0.569095    0.857099    0.615343
C          -0.075474    0.206704   -0.119719
Cl         -0.899979    3.328409   -1.776137
Br          0.384734   -1.530272    0.801774
H          -0.747949   -0.024023   -0.957176
H           0.861174    0.655778   -0.477814
                    6
energy=      0.000000
H          -0.568912    0.854794    0.616441
C          -0.071292    0.189997   -0.110894
Cl         -0.905674    3.349664   -1.787403
Br          0.378652   -1.510160    0.790762
H          -0.747504   -0.026222   -0.956168
H           0.861537    0.653559   -0.476497
                    6
energy=      0.000000
H          -0.568730    0.852490    0.617540
C          -0.067110    0.173290   -0.102070
Cl         -0.911370    3.370918   -1.798669
Br          0.372570   -1.490049    0.779750
H          -0.747060   -0.028420   -0.955160
H           0.861900    0.651340   -0.475180
