                    6
energy=    -68.098502
H          -0.576770    0.953900    0.569210
C          -0.251120    0.908410   -0.490350
Cl         -0.660770    2.435709   -1.302959
Br          0.640180   -2.374939    1.264279
H          -0.766630    0.068310   -0.999520
H           0.845940    0.748990   -0.533130
                    6
energy=    -68.103261
H          -0.574101    0.951839    0.562880
C          -0.243667    0.880574   -0.475534
Cl         -0.667842    2.462047   -1.316972
Br          0.639653   -2.373200    1.263328
H          -0.762656    0.072324   -0.995142
H           0.838870    0.748347   -0.531897
                    6
energy=    -68.105003
H          -0.571941    0.944723    0.566894
C          -0.237107    0.856696   -0.462792
Cl         -0.675563    2.490679   -1.332263
Br          0.637943   -2.365731    1.259471
H          -0.760705    0.065068   -0.991316
H           0.841077    0.741141   -0.528099
                    6
energy=    -68.105513
H          -0.571563    0.939978    0.570554
C          -0.234959    0.847592   -0.457996
Cl         -0.678502    2.501440   -1.337967
Br          0.627376   -2.329680    1.239872
H          -0.760247    0.059409   -0.989641
H           0.843364    0.736197   -0.525431
                    6
energy=    -68.105893
H          -0.571838    0.938067    0.571190
C          -0.234843    0.845446   -0.456937
Cl         -0.678902    2.502764   -1.338609
Br          0.615419   -2.289950    1.218144
H          -0.760005    0.057801   -0.988974
H           0.843262    0.734419   -0.524219
                    6
energy=    -68.106261
H          -0.572228    0.936446    0.571660
C          -0.234879    0.843800   -0.456145
Cl         -0.679118    2.503371   -1.338867
Br          0.603233   -2.249550    1.196038
H          -0.759851    0.056491   -0.988477
H           0.843063    0.732940   -0.523160
                    6
energy=    -68.106622
H          -0.572746    0.934588    0.572904
C          -0.234811    0.841761   -0.455142
Cl         -0.679650    2.505128   -1.339739
Br          0.590828   -2.208350    1.173502
H          -0.759930    0.054417   -0.988144
H           0.843587    0.731099   -0.521984
                    6
energy=    -68.106955
H          -0.573458    0.932606    0.575100
C          -0.234124    0.837449   -0.452924
Cl         -0.680924    2.509634   -1.342076
Br          0.578511   -2.167320    1.151063
H          -0.760367    0.051495   -0.988119
H           0.845051    0.728965   -0.520765
                    6
energy=    -68.107200
H          -0.574405    0.930470    0.578463
C          -0.232578    0.829979   -0.449024
Cl         -0.683250    2.518058   -1.346498
Br          0.566372   -2.126774    1.128897
H          -0.761252    0.047535   -0.988476
H           0.847672    0.726498   -0.519501
                    6
energy=    -68.107235
H          -0.575544    0.928345    0.582717
C          -0.230101    0.819174   -0.443345
Cl         -0.686613    2.530383   -1.352996
Br          0.555043   -2.088875    1.108199
H          -0.762528    0.042867   -0.989217
H           0.851237    0.723919   -0.518299
                    6
energy=    -68.106954
H          -0.576808    0.926350    0.587499
C          -0.226714    0.805126   -0.435945
Cl         -0.690891    2.546176   -1.361345
Br          0.544703   -2.054303    1.089359
H          -0.764084    0.037865   -0.990280
H           0.855414    0.721411   -0.517223
                    6
energy=    -68.106326
H          -0.578072    0.924503    0.592401
C          -0.222611    0.788546   -0.427185
Cl         -0.695771    2.564277   -1.370932
Br          0.535408   -2.023073    1.072333
H          -0.765707    0.032820   -0.991422
H           0.859761    0.718938   -0.516207
                    6
energy=    -68.105386
H          -0.579296    0.922855    0.597139
C          -0.217971    0.770087   -0.417420
Cl         -0.701012    2.583764   -1.381258
Br          0.527059   -1.994908    1.056977
H          -0.767314    0.028007   -0.992587
H           0.864013    0.716647   -0.515294
                    6
energy=    -68.104209
H          -0.580470    0.921437    0.601588
C          -0.212927    0.750239   -0.406912
Cl         -0.706441    2.603975   -1.391967
Br          0.519523   -1.969403    1.043072
H          -0.768870    0.023550   -0.993752
H           0.868055    0.714602   -0.514508
                    6
energy=    -68.102876
H          -0.581572    0.920233    0.605651
C          -0.207597    0.729409   -0.395879
Cl         -0.711943    2.624488   -1.402840
Br          0.512645   -1.946070    1.030354
H          -0.770328    0.019519   -0.994873
H           0.871775    0.712820   -0.513839
                    6
energy=    -68.101465
H          -0.582640    0.919251    0.609405
C          -0.202068    0.707907   -0.384489
Cl         -0.717467    2.645099   -1.413773
Br          0.506302   -1.924544    1.018640
H          -0.771738    0.015864   -0.996008
H           0.875254    0.711309   -0.513302
                    6
energy=    -68.100049
H          -0.583504    0.918388    0.612394
C          -0.196333    0.685697   -0.372716
Cl         -0.722922    2.665465   -1.424573
Br          0.500365   -1.904342    1.007645
H          -0.772838    0.012903   -0.996873
H           0.877990    0.710044   -0.512825
                    6
energy=    -68.098678
H          -0.584318    0.917672    0.615079
C          -0.190484    0.663111   -0.360743
Cl         -0.728319    2.685642   -1.435275
Br          0.494748   -1.885216    0.997246
H          -0.773858    0.010272   -0.997699
H           0.880459    0.708970   -0.512433
                    6
energy=    -68.097398
H          -0.585015    0.917050    0.617298
C          -0.184540    0.640199   -0.348596
Cl         -0.733650    2.705585   -1.445855
Br          0.489375   -1.866896    0.987289
H          -0.774699    0.008076   -0.998374
H           0.882478    0.708060   -0.512085
                    6
energy=    -68.096243
H          -0.585590    0.916479    0.619074
C          -0.178518    0.617020   -0.336305
Cl         -0.738924    2.725334   -1.456332
Br          0.484200   -1.849233    0.977690
H          -0.775356    0.006274   -0.998881
H           0.884060    0.707270   -0.511759
                    6
energy=    -68.095240
H          -0.586067    0.915990    0.620458
C          -0.172407    0.593523   -0.323841
Cl         -0.744122    2.744803   -1.466662
Br          0.479197   -1.832124    0.968398
H          -0.775868    0.004843   -0.999271
H           0.885265    0.706626   -0.511477
                    6
energy=    -68.094412
H          -0.586346    0.915338    0.621402
C          -0.166342    0.570182   -0.311463
Cl         -0.749317    2.764263   -1.476988
Br          0.474226   -1.815140    0.959170
H          -0.776093    0.003680   -0.999334
H           0.885972    0.705923   -0.511102
                    6
energy=    -68.093772
H          -0.586447    0.914524    0.621966
C          -0.160309    0.546958   -0.299150
Cl         -0.754524    2.783765   -1.487336
Br          0.469273   -1.798236    0.949983
H          -0.776058    0.002741   -0.999107
H           0.886240    0.705152   -0.510630
                    6
energy=    -68.093318
H          -0.586420    0.913707    0.622126
C          -0.154183    0.523408   -0.286663
Cl         -0.759680    2.803084   -1.497583
Br          0.464404   -1.781589    0.940937
H          -0.775833    0.002127   -0.998692
H           0.886099    0.704455   -0.510153
                    6
energy=    -68.093046
H          -0.586198    0.912633    0.621959
C          -0.148147    0.500157   -0.274335
Cl         -0.764919    2.822707   -1.507993
Br          0.459483   -1.764806    0.931812
H          -0.775329    0.001637   -0.997939
H           0.885548    0.703589   -0.509528
                    6
energy=    -68.092950
H          -0.585791    0.911411    0.621372
C          -0.142087    0.476790   -0.261951
Cl         -0.770174    2.842411   -1.518443
Br          0.454569   -1.748040    0.922704
H          -0.774564    0.001389   -0.996889
H           0.884538    0.702670   -0.508809
                    6
energy=    -68.093002
H          -0.585220    0.909869    0.620630
C          -0.136152    0.453875   -0.249805
Cl         -0.775610    2.862768   -1.529242
Br          0.449587   -1.731105    0.913492
H          -0.773563    0.001100   -0.995529
H           0.883265    0.701487   -0.507917
                    6
energy=    -68.093181
H          -0.584458    0.908006    0.619650
C          -0.130341    0.431381   -0.237891
Cl         -0.781224    2.883757   -1.540355
Br          0.444556   -1.714051    0.904202
H          -0.772291    0.000810   -0.993820
H           0.881665    0.700042   -0.506839
                    6
energy=    -68.093456
H          -0.583523    0.905819    0.618474
C          -0.124670    0.409356   -0.226227
Cl         -0.787036    2.905504   -1.551884
Br          0.439459   -1.696852    0.894827
H          -0.770778    0.000508   -0.991786
H           0.879761    0.698351   -0.505583
                    6
energy=    -68.093788
H          -0.582403    0.903264    0.617111
C          -0.119179    0.387941   -0.214892
Cl         -0.793115    2.928245   -1.563944
Br          0.434302   -1.679561    0.885390
H          -0.769004    0.000160   -0.989398
H           0.877555    0.696370   -0.504124
                    6
energy=    -68.094133
H          -0.581127    0.900357    0.615615
C          -0.113903    0.367251   -0.203950
Cl         -0.799524    2.952220   -1.576658
Br          0.429110   -1.662297    0.875951
H          -0.767003   -0.000278   -0.986696
H           0.875106    0.694094   -0.502468
                    6
energy=    -68.094444
H          -0.579713    0.897098    0.614018
C          -0.108892    0.347457   -0.193489
Cl         -0.806331    2.977698   -1.590160
Br          0.423915   -1.645218    0.866591
H          -0.764797   -0.000840   -0.983703
H           0.872449    0.691522   -0.500618
                    6
energy=    -68.094672
H          -0.578195    0.893514    0.612383
C          -0.104214    0.328766   -0.183620
Cl         -0.813618    3.004966   -1.604614
Br          0.418765   -1.628549    0.857422
H          -0.762428   -0.001550   -0.980475
H           0.869654    0.688671   -0.498579
                    6
energy=    -68.094768
H          -0.576623    0.889655    0.610789
C          -0.099933    0.311461   -0.174498
Cl         -0.821477    3.034383   -1.620219
Br          0.413740   -1.612632    0.848621
H          -0.759975   -0.002430   -0.977083
H           0.866800    0.685570   -0.496382
                    6
energy=    -68.094698
H          -0.575051    0.885586    0.609308
C          -0.096143    0.295782   -0.166254
Cl         -0.830013    3.066318   -1.637176
Br          0.408926   -1.597833    0.840378
H          -0.757492   -0.003486   -0.973636
H           0.863958    0.682298   -0.494061
                    6
energy=    -68.094441
H          -0.573559    0.881390    0.608023
C          -0.092896    0.281994   -0.159029
Cl         -0.839383    3.101321   -1.655730
Br          0.404433   -1.584639    0.832938
H          -0.755081   -0.004770   -0.970231
H           0.861286    0.678857   -0.491666
                    6
energy=    -68.094012
H          -0.572308    0.877340    0.607108
C          -0.090419    0.270913   -0.153258
Cl         -0.849423    3.138825   -1.675594
Br          0.400533   -1.574037    0.826827
H          -0.752955   -0.006273   -0.967148
H           0.859033    0.675461   -0.489330
                    6
energy=    -68.093451
H          -0.571349    0.873514    0.606621
C          -0.088584    0.262034   -0.148677
Cl         -0.860238    3.179231   -1.696970
Br          0.397175   -1.565876    0.821963
H          -0.751181   -0.008007   -0.964481
H           0.857282    0.672167   -0.487094
                    6
energy=    -68.092819
H          -0.570780    0.870155    0.606575
C          -0.087427    0.255546   -0.145365
Cl         -0.871666    3.221940   -1.719641
Br          0.394419   -1.560417    0.818490
H          -0.749893   -0.009754   -0.962420
H           0.856051    0.669267   -0.485108
                    6
energy=    -68.092139
H          -0.570580    0.867180    0.606975
C          -0.086916    0.251306   -0.143250
Cl         -0.883757    3.267086   -1.743599
Br          0.392223   -1.557495    0.816311
H          -0.749023   -0.011654   -0.960897
H           0.855397    0.666593   -0.483295
                    6
energy=    -68.091429
H          -0.570708    0.864607    0.607778
C          -0.086537    0.247455   -0.141347
Cl         -0.896328    3.314054   -1.768517
Br          0.390290   -1.555812    0.814763
H          -0.748561   -0.013706   -0.959862
H           0.855298    0.664134   -0.481663
                    6
energy=    -68.090678
H          -0.570533    0.861299    0.608754
C          -0.085851    0.242553   -0.138892
Cl         -0.909114    3.361908   -1.793877
Br          0.388197   -1.553468    0.812875
H          -0.747816   -0.016179   -0.958392
H           0.855182    0.660979   -0.479649
                    6
energy=    -68.089738
H          -0.568851    0.854884    0.609812
C          -0.083379    0.231292   -0.133051
Cl         -0.922049    3.410418   -1.819579
Br          0.384839   -1.545215    0.807962
H          -0.745414   -0.020475   -0.954440
H           0.854312    0.654990   -0.475992
                    6
energy=    -68.087908
H          -0.562858    0.842872    0.611364
C          -0.073775    0.198350   -0.115386
Cl         -0.916165    3.388979   -1.808235
Br          0.378667   -1.513436    0.792099
H          -0.739346   -0.028725   -0.944984
H           0.852813    0.643878   -0.469961
                    6
energy=    -68.083999
H          -0.568730    0.852490    0.617540
C          -0.067110    0.173290   -0.102070
Cl         -0.911370    3.370918   -1.798669
Br          0.372570   -1.490049    0.779750
H          -0.747060   -0.028420   -0.955160
H           0.861900    0.651340   -0.475180
