                    6
energy=    -68.098502
H          -0.576770    0.953900    0.569210
C          -0.251120    0.908410   -0.490350
Cl         -0.660770    2.435709   -1.302959
Br          0.640180   -2.374939    1.264279
H          -0.766630    0.068310   -0.999520
H           0.845940    0.748990   -0.533130
                    6
energy=    -68.102849
H          -0.575015    0.951452    0.565762
C          -0.245022    0.885150   -0.477993
Cl         -0.667020    2.458997   -1.315330
Br          0.636242   -2.361794    1.257097
H          -0.763916    0.069738   -0.996267
H           0.841643    0.747477   -0.531689
                    6
energy=    -68.104559
H          -0.575216    0.948926    0.568220
C          -0.241633    0.871307   -0.470692
Cl         -0.672334    2.478823   -1.325829
Br          0.629079   -2.338097    1.244123
H          -0.764036    0.066296   -0.995751
H           0.843303    0.744810   -0.530259
                    6
energy=    -68.105488
H          -0.575428    0.946496    0.570633
C          -0.238093    0.856945   -0.463111
Cl         -0.677730    2.498948   -1.336489
Br          0.622128   -2.315103    1.231534
H          -0.764178    0.062944   -0.995281
H           0.844948    0.742237   -0.528884
                    6
energy=    -68.105749
H          -0.575647    0.944148    0.572998
C          -0.234423    0.842135   -0.455289
Cl         -0.683191    2.519316   -1.347280
Br          0.615356   -2.292694    1.219265
H          -0.764332    0.059679   -0.994844
H           0.846570    0.739745   -0.527555
                    6
energy=    -68.105458
H          -0.575869    0.941871    0.575309
C          -0.230643    0.826942   -0.447262
Cl         -0.688703    2.539876   -1.358174
Br          0.608730   -2.270769    1.207262
H          -0.764492    0.056497   -0.994432
H           0.848161    0.737326   -0.526265
                    6
energy=    -68.104727
H          -0.576091    0.939655    0.577565
C          -0.226770    0.811424   -0.439061
Cl         -0.694254    2.560585   -1.369148
Br          0.602224   -2.249240    1.195476
H          -0.764653    0.053395   -0.994036
H           0.849714    0.734972   -0.525009
                    6
energy=    -68.103653
H          -0.576309    0.937490    0.579760
C          -0.222818    0.795628   -0.430710
Cl         -0.699836    2.581407   -1.380182
Br          0.595815   -2.228032    1.183866
H          -0.764807    0.050371   -0.993648
H           0.851221    0.732673   -0.523780
                    6
energy=    -68.102324
H          -0.576521    0.935369    0.581890
C          -0.218798    0.779593   -0.422232
Cl         -0.705440    2.602312   -1.391262
Br          0.589486   -2.207086    1.172399
H          -0.764951    0.047424   -0.993261
H           0.852677    0.730425   -0.522575
                    6
energy=    -68.100817
H          -0.576723    0.933283    0.583951
C          -0.214719    0.763348   -0.413642
Cl         -0.711060    2.623278   -1.402375
Br          0.583223   -2.186355    1.161051
H          -0.765078    0.044555   -0.992867
H           0.854072    0.728222   -0.521389
                    6
energy=    -68.099196
H          -0.576913    0.931229    0.585941
C          -0.210592    0.746927   -0.404958
Cl         -0.716690    2.644286   -1.413510
Br          0.577012   -2.165794    1.149796
H          -0.765186    0.041761   -0.992464
H           0.855406    0.726059   -0.520218
                    6
energy=    -68.097514
H          -0.577089    0.929199    0.587859
C          -0.206422    0.730347   -0.396190
Cl         -0.722329    2.665324   -1.424660
Br          0.570844   -2.145377    1.138618
H          -0.765270    0.039041   -0.992045
H           0.856674    0.723932   -0.519060
                    6
energy=    -68.095817
H          -0.577248    0.927190    0.589697
C          -0.202212    0.713623   -0.387345
Cl         -0.727971    2.686378   -1.435820
Br          0.564713   -2.125080    1.127508
H          -0.765326    0.036399   -0.991605
H           0.857867    0.721839   -0.517912
                    6
energy=    -68.094142
H          -0.577388    0.925197    0.591456
C          -0.197969    0.696773   -0.378434
Cl         -0.733616    2.707443   -1.446986
Br          0.558613   -2.104881    1.116451
H          -0.765353    0.033831   -0.991140
H           0.858986    0.719774   -0.516772
                    6
energy=    -68.092523
H          -0.577507    0.923217    0.593129
C          -0.193696    0.679807   -0.369461
Cl         -0.739263    2.728513   -1.458154
Br          0.552540   -2.084769    1.105442
H          -0.765344    0.031345   -0.990647
H           0.860020    0.717737   -0.515639
                    6
energy=    -68.090990
H          -0.577603    0.921241    0.594724
C          -0.189398    0.662750   -0.360441
Cl         -0.744907    2.749577   -1.469320
Br          0.546483   -2.064714    1.094465
H          -0.765300    0.028922   -0.990119
H           0.860978    0.715718   -0.514505
                    6
energy=    -68.089565
H          -0.577674    0.919265    0.596236
C          -0.185080    0.645608   -0.351377
Cl         -0.750550    2.770638   -1.480483
Br          0.540443   -2.044715    1.083517
H          -0.765216    0.026568   -0.989553
H           0.861852    0.713715   -0.513371
                    6
energy=    -68.088266
H          -0.577718    0.917286    0.597665
C          -0.180743    0.628393   -0.342275
Cl         -0.756193    2.791698   -1.491646
Br          0.534419   -2.024764    1.072597
H          -0.765090    0.024282   -0.988946
H           0.862641    0.711725   -0.512234
                    6
energy=    -68.087113
H          -0.577732    0.915300    0.599008
C          -0.176391    0.611118   -0.333141
Cl         -0.761833    2.812749   -1.502805
Br          0.528404   -2.004846    1.061695
H          -0.764921    0.022061   -0.988293
H           0.863343    0.709743   -0.511092
                    6
energy=    -68.086116
H          -0.577717    0.913301    0.600268
C          -0.172028    0.593792   -0.323982
Cl         -0.767472    2.833795   -1.513961
Br          0.522399   -1.984958    1.050809
H          -0.764705    0.019903   -0.987593
H           0.863956    0.707767   -0.509942
                    6
energy=    -68.085286
H          -0.577669    0.911286    0.601445
C          -0.167656    0.576429   -0.314804
Cl         -0.773110    2.854841   -1.525117
Br          0.516401   -1.965094    1.039935
H          -0.764441    0.017804   -0.986841
H           0.864482    0.705792   -0.508782
                    6
energy=    -68.084628
H          -0.577588    0.909248    0.602540
C          -0.163281    0.559039   -0.305613
Cl         -0.778749    2.875886   -1.536273
Br          0.510408   -1.945246    1.029072
H          -0.764128    0.015761   -0.986034
H           0.864919    0.703812   -0.507609
                    6
energy=    -68.084148
H          -0.577472    0.907185    0.603557
C          -0.158905    0.541640   -0.296418
Cl         -0.784388    2.896935   -1.547430
Br          0.504418   -1.925409    1.018213
H          -0.763763    0.013767   -0.985172
H           0.865270    0.701823   -0.506421
                    6
energy=    -68.083844
H          -0.577319    0.905088    0.604494
C          -0.154532    0.524240   -0.287224
Cl         -0.790029    2.917989   -1.558590
Br          0.498429   -1.905575    1.007357
H          -0.763344    0.011821   -0.984247
H           0.865530    0.699820   -0.505215
                    6
energy=    -68.083715
H          -0.577130    0.902957    0.605358
C          -0.150165    0.506854   -0.278038
Cl         -0.795671    2.939050   -1.569754
Br          0.492440   -1.885740    0.996500
H          -0.762872    0.009916   -0.983261
H           0.865707    0.697799   -0.503989
                    6
energy=    -68.083755
H          -0.576903    0.900787    0.606148
C          -0.145805    0.489487   -0.268864
Cl         -0.801317    2.960123   -1.580924
Br          0.486448   -1.865902    0.985641
H          -0.762345    0.008049   -0.982211
H           0.865798    0.695758   -0.502741
                    6
energy=    -68.083958
H          -0.576638    0.898571    0.606871
C          -0.141460    0.472164   -0.259714
Cl         -0.806969    2.981223   -1.592108
Br          0.480456   -1.846060    0.974781
H          -0.761763    0.006212   -0.981096
H           0.865809    0.693687   -0.501468
                    6
energy=    -68.084311
H          -0.576337    0.896306    0.607540
C          -0.137133    0.454896   -0.250596
Cl         -0.812631    3.002354   -1.603309
Br          0.474461   -1.826214    0.963917
H          -0.761129    0.004392   -0.979917
H           0.865751    0.691582   -0.500167
                    6
energy=    -68.084803
H          -0.575994    0.893991    0.608138
C          -0.132823    0.437686   -0.241508
Cl         -0.818301    3.023515   -1.614526
Br          0.468461   -1.806356    0.953047
H          -0.760438    0.002601   -0.978667
H           0.865608    0.689446   -0.498838
                    6
energy=    -68.085417
H          -0.575613    0.891622    0.608680
C          -0.128536    0.420547   -0.232460
Cl         -0.823981    3.044717   -1.625765
Br          0.462458   -1.786491    0.942171
H          -0.759694    0.000826   -0.977349
H           0.865392    0.687273   -0.497480
                    6
energy=    -68.086132
H          -0.575193    0.889196    0.609169
C          -0.124274    0.403493   -0.223459
Cl         -0.829675    3.065971   -1.637030
Br          0.456451   -1.766620    0.931292
H          -0.758895   -0.000938   -0.975964
H           0.865107    0.685060   -0.496091
                    6
energy=    -68.086926
H          -0.574736    0.886712    0.609611
C          -0.120041    0.386536   -0.214511
Cl         -0.835386    3.087288   -1.648329
Br          0.450441   -1.746745    0.920410
H          -0.758045   -0.002697   -0.974512
H           0.864757    0.682803   -0.494669
                    6
energy=    -68.087773
H          -0.574243    0.884166    0.610013
C          -0.115841    0.369691   -0.205623
Cl         -0.841117    3.108680   -1.659668
Br          0.444428   -1.726870    0.909526
H          -0.757145   -0.004458   -0.972994
H           0.864349    0.680499   -0.493214
                    6
energy=    -68.088641
H          -0.573714    0.881556    0.610376
C          -0.111676    0.352969   -0.196801
Cl         -0.846871    3.130160   -1.671054
Br          0.438412   -1.706999    0.898643
H          -0.756195   -0.006224   -0.971409
H           0.863883    0.678144   -0.491724
                    6
energy=    -68.089497
H          -0.573150    0.878882    0.610709
C          -0.107551    0.336386   -0.188054
Cl         -0.852655    3.151747   -1.682496
Br          0.432396   -1.687141    0.887765
H          -0.755199   -0.008001   -0.969761
H           0.863367    0.675737   -0.490199
                    6
energy=    -68.090300
H          -0.572550    0.876134    0.611019
C          -0.103471    0.319962   -0.179394
Cl         -0.858477    3.173468   -1.694012
Br          0.426384   -1.667311    0.876901
H          -0.754155   -0.009797   -0.968047
H           0.862807    0.673268   -0.488633
                    6
energy=    -68.091012
H          -0.571923    0.873326    0.611305
C          -0.099437    0.303699   -0.170819
Cl         -0.864334    3.195328   -1.705599
Br          0.420373   -1.647509    0.866048
H          -0.753071   -0.011613   -0.966278
H           0.862206    0.670751   -0.487035
                    6
energy=    -68.091578
H          -0.571265    0.870451    0.611578
C          -0.095457    0.287624   -0.162344
Cl         -0.870238    3.217366   -1.717280
Br          0.414369   -1.627755    0.855218
H          -0.751949   -0.013456   -0.964452
H           0.861570    0.668177   -0.485400
                    6
energy=    -68.091937
H          -0.570581    0.867507    0.611843
C          -0.091537    0.271762   -0.153984
Cl         -0.876199    3.239617   -1.729074
Br          0.408374   -1.608070    0.844421
H          -0.750790   -0.015332   -0.962571
H           0.860905    0.665542   -0.483728
                    6
energy=    -68.092025
H          -0.569873    0.864491    0.612108
C          -0.087685    0.256142   -0.145753
Cl         -0.882230    3.262127   -1.741005
Br          0.402396   -1.588480    0.833670
H          -0.749598   -0.017248   -0.960638
H           0.860220    0.662844   -0.482016
                    6
energy=    -68.091765
H          -0.569143    0.861402    0.612381
C          -0.083910    0.240799   -0.137670
Cl         -0.888345    3.284952   -1.753103
Br          0.396439   -1.569015    0.822981
H          -0.748375   -0.019211   -0.958657
H           0.859519    0.660079   -0.480263
                    6
energy=    -68.091076
H          -0.568394    0.858236    0.612673
C          -0.080223    0.225775   -0.129757
Cl         -0.894562    3.308157   -1.765402
Br          0.390511   -1.549713    0.812371
H          -0.747127   -0.021230   -0.956631
H           0.858814    0.657243   -0.478468
                    6
energy=    -68.089869
H          -0.567629    0.854991    0.612991
C          -0.076640    0.211121   -0.122041
Cl         -0.900903    3.331823   -1.777946
Br          0.384620   -1.530619    0.801864
H          -0.745856   -0.023316   -0.954561
H           0.858111    0.654331   -0.476629
                    6
energy=    -68.088052
H          -0.566852    0.851663    0.613346
C          -0.073175    0.196896   -0.114553
Cl         -0.907392    3.356043   -1.790784
Br          0.378778   -1.511785    0.791485
H          -0.744566   -0.025480   -0.952450
H           0.857420    0.651338   -0.474742
                    6
energy=    -68.083999
H          -0.568730    0.852490    0.617540
C          -0.067110    0.173290   -0.102070
Cl         -0.911370    3.370918   -1.798669
Br          0.372570   -1.490049    0.779750
H          -0.747060   -0.028420   -0.955160
H           0.861900    0.651340   -0.475180
